examples/ieee_cdf/ieee14cdf.txt
 08/19/93 UW ARCHIVE            100.0 1962 W IEEE 14 Bus Test Case
BUS DATA FOLLOWS                            14 ITEMS
   1 Bus 1     HV  1  1  3 1.0600   0.00      0.0       0.0   232.4   -16.9    0.00 1.0600     0.0     0.0  0.0000  0.0000    0
   2 Bus 2     HV  1  1  2 1.0450  -4.98     21.7      12.7    40.0    42.4    0.00 1.0450    50.0   -40.0  0.0000  0.0000    0
   3 Bus 3     HV  1  1  2 1.0100 -12.72     94.2      19.0     0.0    23.4    0.00 1.0100    40.0     0.0  0.0000  0.0000    0
   4 Bus 4     HV  1  1  0 1.0190 -10.33     47.8      -3.9     0.0     0.0    0.00 0.0000     0.0     0.0  0.0000  0.0000    0
   5 Bus 5     HV  1  1  0 1.0200  -8.78      7.6       1.6     0.0     0.0    0.00 0.0000     0.0     0.0  0.0000  0.0000    0
   6 Bus 6     LV  1  1  2 1.0700 -14.22     11.2       7.5     0.0    12.2    0.00 1.0700    24.0    -6.0  0.0000  0.0000    0
   7 Bus 7     ZV  1  1  0 1.0620 -13.37      0.0       0.0     0.0     0.0    0.00 0.0000     0.0     0.0  0.0000  0.0000    0
   8 Bus 8     TV  1  1  2 1.0900 -13.36      0.0       0.0     0.0    17.4    0.00 1.0900    24.0    -6.0  0.0000  0.0000    0
   9 Bus 9     LV  1  1  0 1.0560 -14.94     29.5      16.6     0.0     0.0    0.00 0.0000     0.0     0.0  0.0000  0.1900    0
  10 Bus 10    LV  1  1  0 1.0510 -15.10      9.0       5.8     0.0     0.0    0.00 0.0000     0.0     0.0  0.0000  0.0000    0
  11 Bus 11    LV  1  1  0 1.0570 -14.79      3.5       1.8     0.0     0.0    0.00 0.0000     0.0     0.0  0.0000  0.0000    0
  12 Bus 12    LV  1  1  0 1.0550 -15.07      6.1       1.6     0.0     0.0    0.00 0.0000     0.0     0.0  0.0000  0.0000    0
  13 Bus 13    LV  1  1  0 1.0500 -15.16     13.5       5.8     0.0     0.0    0.00 0.0000     0.0     0.0  0.0000  0.0000    0
  14 Bus 14    LV  1  1  0 1.0360 -16.04     14.9       5.0     0.0     0.0    0.00 0.0000     0.0     0.0  0.0000  0.0000    0
-999
BRANCH DATA FOLLOWS                         20 ITEMS
   1    2  1 1  1 0  0.019380   0.059170  0.052800                     0 0
   1    5  1 1  1 0  0.054030   0.223040  0.049200                     0 0
   2    3  1 1  1 0  0.046990   0.197970  0.043800                     0 0
   2    4  1 1  1 0  0.058110   0.176320  0.034000                     0 0
   2    5  1 1  1 0  0.056950   0.173880  0.034600                     0 0
   3    4  1 1  1 0  0.067010   0.171030  0.012800                     0 0
   4    5  1 1  1 0  0.013350   0.042110  0.000000                     0 0
   4    7  1 1  1 1  0.000000   0.209120  0.000000                     0 0   0.978    0.00
   4    9  1 1  1 1  0.000000   0.556180  0.000000                     0 0   0.969    0.00
   5    6  1 1  1 1  0.000000   0.252020  0.000000                     0 0   0.932    0.00
   6   11  1 1  1 0  0.094980   0.198900  0.000000                     0 0
   6   12  1 1  1 0  0.122910   0.255810  0.000000                     0 0
   6   13  1 1  1 0  0.066150   0.130270  0.000000                     0 0
   7    8  1 1  1 0  0.000000   0.176150  0.000000                     0 0
   7    9  1 1  1 0  0.000000   0.110010  0.000000                     0 0
   9   10  1 1  1 0  0.031810   0.084500  0.000000                     0 0
   9   14  1 1  1 0  0.127110   0.270380  0.000000                     0 0
  10   11  1 1  1 0  0.082050   0.192070  0.000000                     0 0
  12   13  1 1  1 0  0.220920   0.199880  0.000000                     0 0
  13   14  1 1  1 0  0.170930   0.348020  0.000000                     0 0
-999
LOSS ZONES FOLLOWS                     1 ITEMS
  1 IEEE 14   
-99
INTERCHANGE DATA FOLLOWS                1 ITEMS
 1    2 Bus 2     HV    0.00      999.99 IEEE14                        IEEE 14 Bus Test Case
-9
TIE LINES FOLLOWS                     0 ITEMS
-999
END OF DATA
